123Bus/ieee123_VLL.Txt

SYMMETRICAL COMPONENT PHASE-PHASE VOLTAGES BY BUS (for 3-phase buses)

Bus       Mag:   V1 (kV)    p.u.     V2 (kV)   %V2/V1    V0 (kV)    %V0/V1

150           4.16          1  9.395E-006  0.0002258 5.684E-016 1.366E-014
150r          4.29      1.031  1.304E-005   0.000304 7.28E-016 1.697E-014
149           4.29      1.031  1.304E-005   0.000304 6.431E-016 1.499E-014
1            4.267      1.026   0.008228     0.1928 5.084E-016 1.191E-014
2            2.473     0.5945          0          0         0         0
3            2.459     0.5911          0          0         0         0
7            4.252      1.022    0.01409     0.3314 5.684E-016 1.337E-014
4            2.458     0.5909          0          0         0         0
5            2.457     0.5906          0          0         0         0
6            2.456     0.5903          0          0         0         0
8            4.241       1.02     0.0179     0.4221 5.684E-016 1.34E-014
12           2.469     0.5936          0          0         0         0
9            2.427     0.5834          0          0         0         0
13           4.226      1.016    0.02299     0.5438 6.431E-016 1.522E-014
9r           2.412     0.5798          0          0         0         0
14           2.409      0.579          0          0         0         0
34           2.436     0.5855          0          0         0         0
18           4.205      1.011    0.02365     0.5625 5.684E-016 1.352E-014
11           2.408     0.5788          0          0         0         0
10           2.408     0.5789          0          0         0         0
15           2.435     0.5853          0          0         0         0
16           2.433     0.5849          0          0         0         0
17           2.434     0.5851          0          0         0         0
19           2.398     0.5763          0          0         0         0
21           4.203       1.01    0.02397     0.5704 4.547E-016 1.082E-014
20           2.396      0.576          0          0         0         0
22           2.457     0.5906          0          0         0         0
23           4.202       1.01    0.02451     0.5832 3.216E-016 7.653E-015
24           2.417      0.581          0          0         0         0
25           4.201       1.01    0.02512      0.598 7.28E-016 1.733E-014
25r          2.412     0.5798          0          0         0         0
26           2.411     0.5797          0          0         0         0
28             4.2       1.01    0.02542     0.6052 5.684E-016 1.353E-014
27           2.411     0.5795          0          0         0         0
31           2.401     0.5772          0          0         0         0
33           2.408     0.5789          0          0         0         0
29             4.2       1.01    0.02564     0.6104 4.099E-016 9.76E-015
30           4.199      1.009    0.02561       0.61 3.411E-016 8.122E-015
250          4.199      1.009    0.02561       0.61 7.28E-016 1.733E-014
32             2.4      0.577          0          0         0         0
35           4.198      1.009    0.02452      0.584 3.216E-016 7.659E-015
36           2.393     0.5753          0          0         0         0
40           4.194      1.008     0.0249     0.5937 4.099E-016 9.773E-015
37           2.392     0.5749          0          0         0         0
38           2.453     0.5896          0          0         0         0
39           2.452     0.5894          0          0         0         0
41           2.419     0.5816          0          0         0         0
42            4.19      1.007    0.02529     0.6034 2.274E-016 5.426E-015
43           2.448     0.5885          0          0         0         0
44           4.188      1.007    0.02566     0.6127 3.216E-016 7.678E-015
45           2.386     0.5736          0          0         0         0
47           4.184      1.006    0.02586     0.6179 4.099E-016 9.796E-015
46           2.386     0.5735          0          0         0         0
48           4.184      1.006    0.02594     0.6201 7.19E-016 1.719E-014
49           4.183      1.006    0.02595     0.6203 5.084E-016 1.215E-014
50           4.183      1.006    0.02611     0.6242 4.687E-016 1.121E-014
51           4.183      1.005    0.02624     0.6272 5.084E-016 1.215E-014
151          4.183      1.005    0.02624     0.6272 5.684E-016 1.359E-014
52           4.218      1.014    0.02702     0.6406 4.687E-016 1.111E-014
53           4.214      1.013    0.02883     0.6842 2.542E-016 6.033E-015
54           4.211      1.012    0.02983     0.7084 4.099E-016 9.734E-015
55           4.211      1.012    0.02986     0.7091 5.684E-016 1.35E-014
57           4.204      1.011    0.03041     0.7232 3.216E-016 7.648E-015
56           4.211      1.012    0.02974     0.7063 7.19E-016 1.708E-014
58           2.459     0.5911          0          0         0         0
60            4.19      1.007    0.03253     0.7763 6.122E-016 1.461E-014
59           2.458      0.591          0          0         0         0
61            4.19      1.007    0.03253     0.7763 5.684E-016 1.357E-014
62           4.186      1.006    0.03209     0.7666 3.216E-016 7.682E-015
63           4.183      1.006    0.03198     0.7645 3.216E-016 7.687E-015
64           4.179      1.004    0.03115     0.7456 4.099E-016 9.809E-015
65           4.174      1.003    0.03062     0.7336 3.216E-016 7.703E-015
66           4.173      1.003    0.03007     0.7206 4.099E-016 9.822E-015
67           4.317      1.038    0.02452      0.568 5.084E-016 1.178E-014
68           2.486     0.5976          0          0         0         0
72           4.318      1.038    0.02461     0.5698 5.084E-016 1.177E-014
97           4.315      1.037    0.02497     0.5787 6.122E-016 1.419E-014
69           2.483     0.5969          0          0         0         0
70           2.481     0.5963          0          0         0         0
71           2.479      0.596          0          0         0         0
73           2.486     0.5977          0          0         0         0
76           4.319      1.038    0.02522     0.5839 4.547E-016 1.053E-014
74           2.483     0.5969          0          0         0         0
75           2.481     0.5965          0          0         0         0
77           4.324      1.039    0.02452      0.567 5.084E-016 1.176E-014
86           4.319      1.038    0.02651     0.6138 3.216E-016 7.446E-015
78           4.326       1.04    0.02432     0.5622 5.684E-016 1.314E-014
79           4.325       1.04    0.02452     0.5669 5.684E-016 1.314E-014
80           4.333      1.041    0.02296     0.5298 5.684E-016 1.312E-014
81           4.335      1.042    0.02241      0.517 4.099E-016 9.455E-015
82           4.339      1.043    0.02202     0.5075 4.099E-016 9.446E-015
84           2.494     0.5995          0          0         0         0
83           4.344      1.044    0.02143     0.4933 4.099E-016 9.436E-015
85           2.492      0.599          0          0         0         0
87           4.318      1.038    0.02698     0.6248 5.084E-016 1.177E-014
88           2.489     0.5984          0          0         0         0
89           4.318      1.038    0.02687     0.6223 3.216E-016 7.446E-015
90           2.494     0.5996          0          0         0         0
91           4.318      1.038     0.0271     0.6275 4.099E-016 9.493E-015
92           2.498     0.6005          0          0         0         0
93           4.318      1.038    0.02735     0.6333 5.084E-016 1.178E-014
94           2.486     0.5976          0          0         0         0
95           4.317      1.038    0.02745     0.6358 4.099E-016 9.494E-015
96           2.492      0.599          0          0         0         0
98           4.314      1.037    0.02504     0.5803 5.084E-016 1.178E-014
99           4.313      1.037    0.02469     0.5723 4.099E-016 9.503E-015
100          4.313      1.037    0.02441      0.566 4.099E-016 9.504E-015
450          4.313      1.037    0.02441      0.566 5.084E-016 1.179E-014
197          4.315      1.037    0.02497     0.5787 3.216E-016 7.452E-015
101          4.313      1.037    0.02537     0.5881 2.542E-016 5.894E-015
102          2.485     0.5974          0          0         0         0
105          4.312      1.037    0.02638     0.6118 4.547E-016 1.055E-014
103          2.482     0.5966          0          0         0         0
104          2.479     0.5959          0          0         0         0
106          2.495     0.5999          0          0         0         0
108          4.311      1.036    0.02742     0.6361 3.411E-016 7.912E-015
107          2.493     0.5992          0          0         0         0
109          2.473     0.5945          0          0         0         0
300          4.311      1.036    0.02742     0.6361 4.547E-016 1.055E-014
110          2.469     0.5936          0          0         0         0
111          2.468     0.5933          0          0         0         0
112          2.468     0.5933          0          0         0         0
113          2.464     0.5924          0          0         0         0
114          2.464     0.5922          0          0         0         0
135          4.205      1.011    0.02365     0.5625 2.542E-016 6.046E-015
152          4.226      1.016    0.02299     0.5438 7.28E-016 1.722E-014
160r          4.32      1.039    0.02424     0.5611 6.431E-016 1.489E-014
160           4.19      1.007    0.03253     0.7763 3.411E-016 8.14E-015
61s           4.19      1.007    0.03253     0.7763 3.216E-016 7.674E-015
300_open     4.183      1.005    0.02624     0.6272 5.684E-016 1.359E-014
94_open        2.4      0.577          0          0         0         0
610         0.4835      1.007   0.003753     0.7763 5.124E-017 1.06E-014
