123Bus/ieee123_VLN_Node.Txt

LINE-GROUND and LINE-LINE VOLTAGES BY BUS & NODE

Bus            Node    VLN (kV)   Angle      pu     Base kV    Node-Node   VLL (kV)  Angle      pu

150 .......... 1       2.4018 /_    0.0   0.99999     4.160        1-2       4.16 /_   30.0   0.99999
   -           2       2.4018 /_ -120.0         1     4.160        2-3       4.16 /_  -90.0         1
   -           3       2.4018 /_  120.0   0.99999     4.160        3-1       4.16 /_  150.0   0.99999
150R ......... 1       2.4018 /_    0.0   0.99999     4.160        1-2       4.16 /_   30.0   0.99999
   -           2       2.4018 /_ -120.0   0.99999     4.160        2-3       4.16 /_  -90.0   0.99999
   -           3       2.4018 /_  120.0   0.99999     4.160        3-1       4.16 /_  150.0   0.99999
149 .......... 1       2.4018 /_    0.0   0.99999     4.160        1-2       4.16 /_   30.0   0.99999
   -           2       2.4018 /_ -120.0   0.99999     4.160        2-3       4.16 /_  -90.0   0.99999
   -           3       2.4018 /_  120.0   0.99999     4.160        3-1       4.16 /_  150.0   0.99999
1 ............ 1       2.3859 /_   -0.3    0.9934     4.160        1-2     4.1383 /_   29.9   0.99479
   -           2        2.396 /_ -120.1   0.99758     4.160        2-3     4.1448 /_  -90.2   0.99634
   -           3       2.3885 /_  119.8   0.99449     4.160        3-1     4.1364 /_  149.8   0.99434
2 ............ 2       2.3955 /_ -120.1   0.99738     4.160
3 ............ 3       2.3851 /_  119.8   0.99305     4.160
7 ............ 1       2.3741 /_   -0.5   0.98846     4.160        1-2     4.1229 /_   29.8   0.99108
   -           2       2.3918 /_ -120.2   0.99585     4.160        2-3     4.1343 /_  -90.3   0.99381
   -           3       2.3806 /_  119.7   0.99117     4.160        3-1     4.1208 /_  149.6   0.99058
4 ............ 3        2.384 /_  119.8   0.99258     4.160
5 ............ 3       2.3824 /_  119.8   0.99193     4.160
6 ............ 3        2.381 /_  119.7   0.99136     4.160
8 ............ 1       2.3664 /_   -0.6   0.98529     4.160        1-2     4.1128 /_   29.7   0.98866
   -           2       2.3889 /_ -120.3   0.99463     4.160        2-3     4.1272 /_  -90.4   0.99212
   -           3       2.3753 /_  119.6   0.98898     4.160        3-1     4.1105 /_  149.5   0.98811
12 ........... 2       2.3882 /_ -120.3   0.99436     4.160
9 ............ 1       2.3652 /_   -0.6   0.98476     4.160
13 ........... 1       2.3559 /_   -0.7   0.98092     4.160        1-2     4.0985 /_   29.6   0.98521
   -           2       2.3844 /_ -120.4   0.99277     4.160        2-3     4.1169 /_  -90.6   0.98965
   -           3       2.3673 /_  119.5   0.98563     4.160        3-1     4.0954 /_  149.3   0.98447
9R ........... 1            0 /_    0.0         0     4.160
14 ........... 1            0 /_    0.0         0     4.160
34 ........... 3       2.3652 /_  119.5   0.98477     4.160
18 ........... 1       2.3381 /_   -1.1    0.9735     4.160        1-2     4.0729 /_   29.4   0.97907
   -           2       2.3749 /_ -120.6   0.98883     4.160        2-3     4.0933 /_  -90.7   0.98397
   -           3       2.3539 /_  119.5   0.98007     4.160        3-1     4.0741 /_  149.1   0.97935
11 ........... 1            0 /_    0.0         0     4.160
10 ........... 1            0 /_    0.0         0     4.160
15 ........... 3       2.3643 /_  119.5   0.98441     4.160
16 ........... 3       2.3622 /_  119.5   0.98354     4.160
17 ........... 3       2.3634 /_  119.5     0.984     4.160
19 ........... 1       2.3353 /_   -1.1   0.97234     4.160
21 ........... 1       2.3374 /_   -1.1   0.97319     4.160        1-2     4.0716 /_   29.4   0.97875
   -           2       2.3748 /_ -120.6   0.98875     4.160        2-3      4.092 /_  -90.8   0.98366
   -           3       2.3523 /_  119.4   0.97941     4.160        3-1     4.0723 /_  149.1   0.97892
20 ........... 1       2.3335 /_   -1.1   0.97159     4.160
22 ........... 2       2.3719 /_ -120.7   0.98756     4.160
23 ........... 1       2.3368 /_   -1.1   0.97297     4.160        1-2     4.0707 /_   29.4   0.97854
   -           2       2.3753 /_ -120.6   0.98897     4.160        2-3     4.0915 /_  -90.8   0.98354
   -           3       2.3507 /_  119.4   0.97873     4.160        3-1     4.0709 /_  149.1   0.97857
24 ........... 3       2.3476 /_  119.4   0.97744     4.160
25 ........... 1       2.3358 /_   -1.2   0.97253     4.160        1-2     4.0697 /_   29.4   0.97828
   -           2       2.3759 /_ -120.6   0.98924     4.160        2-3     4.0912 /_  -90.8   0.98345
   -           3       2.3497 /_  119.4   0.97831     4.160        3-1     4.0698 /_  149.0   0.97833
25R .......... 1            0 /_    0.0         0     4.160
   -           3            0 /_    0.0         0     4.160        3-1          0 /_    0.0         0
26 ........... 1            0 /_    0.0         0     4.160
   -           3            0 /_    0.0         0     4.160        3-1          0 /_    0.0         0
28 ........... 1        2.335 /_   -1.2   0.97222     4.160        1-2     4.0689 /_   29.4   0.97809
   -           2       2.3764 /_ -120.6   0.98944     4.160        2-3     4.0909 /_  -90.8   0.98339
   -           3        2.349 /_  119.4   0.97801     4.160        3-1     4.0691 /_  149.0   0.97815
27 ........... 1            0 /_    0.0         0     4.160
   -           3            0 /_    0.0         0     4.160        3-1          0 /_    0.0         0
31 ........... 3            0 /_    0.0         0     4.160
33 ........... 1            0 /_    0.0         0     4.160
29 ........... 1       2.3347 /_   -1.2   0.97208     4.160        1-2     4.0683 /_   29.4   0.97797
   -           2       2.3767 /_ -120.6   0.98957     4.160        2-3     4.0906 /_  -90.8   0.98332
   -           3        2.348 /_  119.4    0.9776     4.160        3-1     4.0682 /_  149.0   0.97794
30 ........... 1       2.3353 /_   -1.2   0.97232     4.160        1-2     4.0685 /_   29.4     0.978
   -           2       2.3766 /_ -120.6   0.98953     4.160        2-3     4.0903 /_  -90.8   0.98325
   -           3        2.347 /_  119.4   0.97719     4.160        3-1     4.0675 /_  149.0   0.97777
250 .......... 1       2.3353 /_   -1.2   0.97232     4.160        1-2     4.0685 /_   29.4     0.978
   -           2       2.3766 /_ -120.6   0.98953     4.160        2-3     4.0903 /_  -90.8   0.98325
   -           3        2.347 /_  119.4   0.97719     4.160        3-1     4.0675 /_  149.0   0.97777
32 ........... 3            0 /_    0.0         0     4.160
35 ........... 1       2.3323 /_   -1.1   0.97109     4.160        1-2     4.0633 /_   29.3   0.97675
   -           2       2.3696 /_ -120.7    0.9866     4.160        2-3     4.0863 /_  -90.8   0.98229
   -           3       2.3516 /_  119.4   0.97912     4.160        3-1     4.0675 /_  149.0   0.97777
36 ........... 1       2.3304 /_   -1.2   0.97029     4.160        1-2     4.0613 /_   29.3   0.97627
   -           2       2.3686 /_ -120.8   0.98617     4.160
40 ........... 1       2.3292 /_   -1.2   0.96977     4.160        1-2     4.0587 /_   29.3   0.97564
   -           2       2.3672 /_ -120.8   0.98562     4.160        2-3     4.0823 /_  -90.8   0.98132
   -           3       2.3494 /_  119.4   0.97819     4.160        3-1     4.0627 /_  148.9    0.9766
37 ........... 1       2.3288 /_   -1.2   0.96962     4.160
38 ........... 2       2.3672 /_ -120.8   0.98559     4.160
39 ........... 2       2.3663 /_ -120.8   0.98521     4.160
41 ........... 3       2.3485 /_  119.3    0.9778     4.160
42 ........... 1       2.3258 /_   -1.2   0.96838     4.160        1-2      4.054 /_   29.3   0.97453
   -           2       2.3649 /_ -120.8   0.98465     4.160        2-3     4.0784 /_  -90.9   0.98039
   -           3       2.3475 /_  119.3    0.9774     4.160        3-1     4.0581 /_  148.9    0.9755
43 ........... 2       2.3622 /_ -120.8   0.98351     4.160
44 ........... 1       2.3236 /_   -1.2   0.96743     4.160        1-2     4.0507 /_   29.2   0.97373
   -           2       2.3634 /_ -120.8   0.98403     4.160        2-3     4.0757 /_  -90.9   0.97973
   -           3       2.3458 /_  119.3   0.97667     4.160        3-1     4.0546 /_  148.9   0.97466
45 ........... 1       2.3224 /_   -1.2   0.96696     4.160
47 ........... 1       2.3214 /_   -1.3   0.96653     4.160        1-2     4.0471 /_   29.2   0.97286
   -           2       2.3612 /_ -120.9   0.98309     4.160        2-3     4.0722 /_  -90.9    0.9789
   -           3       2.3436 /_  119.3   0.97579     4.160        3-1     4.0504 /_  148.8   0.97365
46 ........... 1       2.3216 /_   -1.3    0.9666     4.160
48 ........... 1       2.3208 /_   -1.3    0.9663     4.160        1-2     4.0461 /_   29.2   0.97262
   -           2       2.3606 /_ -120.9   0.98285     4.160        2-3     4.0714 /_  -90.9    0.9787
   -           3       2.3432 /_  119.2    0.9756     4.160        3-1     4.0495 /_  148.8   0.97343
49 ........... 1       2.3208 /_   -1.3   0.96629     4.160        1-2     4.0456 /_   29.2   0.97249
   -           2         2.36 /_ -120.9   0.98259     4.160        2-3     4.0709 /_  -90.9   0.97858
   -           3       2.3429 /_  119.2   0.97551     4.160        3-1      4.049 /_  148.8   0.97331
50 ........... 1       2.3208 /_   -1.3   0.96627     4.160        1-2     4.0452 /_   29.2    0.9724
   -           2         2.36 /_ -120.9   0.98261     4.160        2-3     4.0707 /_  -90.9   0.97853
   -           3       2.3422 /_  119.2    0.9752     4.160        3-1     4.0483 /_  148.8   0.97314
51 ........... 1       2.3204 /_   -1.3   0.96612     4.160        1-2     4.0449 /_   29.2   0.97234
   -           2       2.3602 /_ -120.9   0.98268     4.160        2-3     4.0707 /_  -90.9   0.97853
   -           3       2.3422 /_  119.2   0.97519     4.160        3-1     4.0482 /_  148.8   0.97312
151 .......... 1       2.3204 /_   -1.3   0.96612     4.160        1-2     4.0449 /_   29.2   0.97234
   -           2       2.3602 /_ -120.9   0.98268     4.160        2-3     4.0707 /_  -90.9   0.97853
   -           3       2.3422 /_  119.2   0.97519     4.160        3-1     4.0482 /_  148.8   0.97312
52 ........... 1       2.3509 /_   -0.8   0.97882     4.160        1-2     4.0924 /_   29.6   0.98374
   -           2       2.3824 /_ -120.5   0.99192     4.160        2-3     4.1126 /_  -90.6    0.9886
   -           3       2.3646 /_  119.5   0.98451     4.160        3-1     4.0889 /_  149.2   0.98291
53 ........... 1        2.349 /_   -0.8   0.97801     4.160        1-2     4.0897 /_   29.6   0.98311
   -           2        2.381 /_ -120.5   0.99136     4.160        2-3     4.1103 /_  -90.7   0.98806
   -           3       2.3633 /_  119.4   0.98397     4.160        3-1     4.0858 /_  149.2   0.98217
54 ........... 1       2.3481 /_   -0.8   0.97764     4.160        1-2     4.0883 /_   29.6   0.98278
   -           2         2.38 /_ -120.5   0.99093     4.160        2-3     4.1089 /_  -90.7   0.98771
   -           3       2.3625 /_  119.4   0.98365     4.160        3-1      4.084 /_  149.2   0.98174
55 ........... 1       2.3476 /_   -0.8   0.97746     4.160        1-2      4.088 /_   29.6   0.98268
   -           2       2.3798 /_ -120.5   0.99086     4.160        2-3     4.1086 /_  -90.7   0.98765
   -           3       2.3626 /_  119.4   0.98371     4.160        3-1     4.0839 /_  149.2    0.9817
57 ........... 1       2.3466 /_   -0.8   0.97704     4.160        1-2     4.0845 /_   29.5   0.98185
   -           2       2.3767 /_ -120.5   0.98956     4.160        2-3     4.1049 /_  -90.7   0.98675
   -           3       2.3604 /_  119.3   0.98278     4.160        3-1     4.0801 /_  149.2   0.98078
56 ........... 1       2.3476 /_   -0.8   0.97744     4.160        1-2     4.0878 /_   29.6   0.98265
   -           2       2.3794 /_ -120.5    0.9907     4.160        2-3     4.1083 /_  -90.7   0.98758
   -           3       2.3628 /_  119.4   0.98379     4.160        3-1     4.0838 /_  149.2   0.98169
58 ........... 2       2.3753 /_ -120.6   0.98898     4.160
60 ........... 1       2.3438 /_   -0.9   0.97584     4.160        1-2     4.0769 /_   29.5   0.98002
   -           2       2.3717 /_ -120.6   0.98748     4.160        2-3     4.0979 /_  -90.8   0.98506
   -           3       2.3548 /_  119.2   0.98044     4.160        3-1     4.0713 /_  149.1   0.97868
59 ........... 2       2.3746 /_ -120.6   0.98869     4.160
61 ........... 1       2.3438 /_   -0.9   0.97584     4.160        1-2     4.0769 /_   29.5   0.98002
   -           2       2.3717 /_ -120.6   0.98748     4.160        2-3     4.0979 /_  -90.8   0.98506
   -           3       2.3548 /_  119.2   0.98044     4.160        3-1     4.0713 /_  149.1   0.97868
62 ........... 1       2.3421 /_   -0.9   0.97517     4.160        1-2     4.0731 /_   29.5   0.97911
   -           2       2.3694 /_ -120.5    0.9865     4.160        2-3     4.0928 /_  -90.8   0.98384
   -           3       2.3505 /_  119.2   0.97864     4.160        3-1     4.0659 /_  149.1   0.97737
63 ........... 1       2.3409 /_   -0.9   0.97465     4.160        1-2     4.0704 /_   29.5   0.97847
   -           2       2.3676 /_ -120.5   0.98575     4.160        2-3     4.0897 /_  -90.8   0.98311
   -           3       2.3484 /_  119.2   0.97776     4.160        3-1     4.0626 /_  149.1   0.97658
64 ........... 1       2.3402 /_   -0.9   0.97438     4.160        1-2     4.0662 /_   29.5   0.97745
   -           2       2.3636 /_ -120.5   0.98412     4.160        2-3     4.0836 /_  -90.8   0.98163
   -           3       2.3438 /_  119.2   0.97585     4.160        3-1     4.0571 /_  149.1   0.97526
65 ........... 1       2.3388 /_   -0.9   0.97379     4.160        1-2     4.0634 /_   29.5   0.97678
   -           2        2.363 /_ -120.5   0.98384     4.160        2-3     4.0784 /_  -90.8   0.98039
   -           3       2.3374 /_  119.2   0.97321     4.160        3-1     4.0504 /_  149.1   0.97366
66 ........... 1       2.3393 /_   -0.9   0.97399     4.160        1-2     4.0633 /_   29.5   0.97676
   -           2       2.3635 /_ -120.4   0.98406     4.160        2-3     4.0766 /_  -90.9   0.97995
   -           3       2.3342 /_  119.2   0.97186     4.160        3-1     4.0485 /_  149.2   0.97319
67 ........... 1            0 /_    0.0         0     4.160        1-2          0 /_    0.0         0
   -           2            0 /_    0.0         0     4.160        2-3          0 /_    0.0         0
   -           3            0 /_    0.0         0     4.160        3-1          0 /_    0.0         0
68 ........... 1            0 /_    0.0         0     4.160
72 ........... 1            0 /_    0.0         0     4.160        1-2          0 /_    0.0         0
   -           2            0 /_    0.0         0     4.160        2-3          0 /_    0.0         0
   -           3            0 /_    0.0         0     4.160        3-1          0 /_    0.0         0
97 ........... 1            0 /_    0.0         0     4.160        1-2          0 /_    0.0         0
   -           2            0 /_    0.0         0     4.160        2-3          0 /_    0.0         0
   -           3            0 /_    0.0         0     4.160        3-1          0 /_    0.0         0
69 ........... 1            0 /_    0.0         0     4.160
70 ........... 1            0 /_    0.0         0     4.160
71 ........... 1            0 /_    0.0         0     4.160
73 ........... 3            0 /_    0.0         0     4.160
76 ........... 1            0 /_    0.0         0     4.160        1-2          0 /_    0.0         0
   -           2            0 /_    0.0         0     4.160        2-3          0 /_    0.0         0
   -           3            0 /_    0.0         0     4.160        3-1          0 /_    0.0         0
74 ........... 3            0 /_    0.0         0     4.160
75 ........... 3            0 /_    0.0         0     4.160
77 ........... 1            0 /_    0.0         0     4.160        1-2          0 /_    0.0         0
   -           2            0 /_    0.0         0     4.160        2-3          0 /_    0.0         0
   -           3            0 /_    0.0         0     4.160        3-1          0 /_    0.0         0
86 ........... 1            0 /_    0.0         0     4.160        1-2          0 /_    0.0         0
   -           2            0 /_    0.0         0     4.160        2-3          0 /_    0.0         0
   -           3            0 /_    0.0         0     4.160        3-1          0 /_    0.0         0
78 ........... 1            0 /_    0.0         0     4.160        1-2          0 /_    0.0         0
   -           2            0 /_    0.0         0     4.160        2-3          0 /_    0.0         0
   -           3            0 /_    0.0         0     4.160        3-1          0 /_    0.0         0
79 ........... 1            0 /_    0.0         0     4.160        1-2          0 /_    0.0         0
   -           2            0 /_    0.0         0     4.160        2-3          0 /_    0.0         0
   -           3            0 /_    0.0         0     4.160        3-1          0 /_    0.0         0
80 ........... 1            0 /_    0.0         0     4.160        1-2          0 /_    0.0         0
   -           2            0 /_    0.0         0     4.160        2-3          0 /_    0.0         0
   -           3            0 /_    0.0         0     4.160        3-1          0 /_    0.0         0
81 ........... 1            0 /_    0.0         0     4.160        1-2          0 /_    0.0         0
   -           2            0 /_    0.0         0     4.160        2-3          0 /_    0.0         0
   -           3            0 /_    0.0         0     4.160        3-1          0 /_    0.0         0
82 ........... 1            0 /_    0.0         0     4.160        1-2          0 /_    0.0         0
   -           2            0 /_    0.0         0     4.160        2-3          0 /_    0.0         0
   -           3            0 /_    0.0         0     4.160        3-1          0 /_    0.0         0
84 ........... 3            0 /_    0.0         0     4.160
83 ........... 1            0 /_    0.0         0     4.160        1-2          0 /_    0.0         0
   -           2            0 /_    0.0         0     4.160        2-3          0 /_    0.0         0
   -           3            0 /_    0.0         0     4.160        3-1          0 /_    0.0         0
85 ........... 3            0 /_    0.0         0     4.160
87 ........... 1            0 /_    0.0         0     4.160        1-2          0 /_    0.0         0
   -           2            0 /_    0.0         0     4.160        2-3          0 /_    0.0         0
   -           3            0 /_    0.0         0     4.160        3-1          0 /_    0.0         0
88 ........... 1            0 /_    0.0         0     4.160
89 ........... 1            0 /_    0.0         0     4.160        1-2          0 /_    0.0         0
   -           2            0 /_    0.0         0     4.160        2-3          0 /_    0.0         0
   -           3            0 /_    0.0         0     4.160        3-1          0 /_    0.0         0
90 ........... 2            0 /_    0.0         0     4.160
91 ........... 1            0 /_    0.0         0     4.160        1-2          0 /_    0.0         0
   -           2            0 /_    0.0         0     4.160        2-3          0 /_    0.0         0
   -           3            0 /_    0.0         0     4.160        3-1          0 /_    0.0         0
92 ........... 3            0 /_    0.0         0     4.160
93 ........... 1            0 /_    0.0         0     4.160        1-2          0 /_    0.0         0
   -           2            0 /_    0.0         0     4.160        2-3          0 /_    0.0         0
   -           3            0 /_    0.0         0     4.160        3-1          0 /_    0.0         0
94 ........... 1            0 /_    0.0         0     4.160
95 ........... 1            0 /_    0.0         0     4.160        1-2          0 /_    0.0         0
   -           2            0 /_    0.0         0     4.160        2-3          0 /_    0.0         0
   -           3            0 /_    0.0         0     4.160        3-1          0 /_    0.0         0
96 ........... 2            0 /_    0.0         0     4.160
98 ........... 1            0 /_    0.0         0     4.160        1-2          0 /_    0.0         0
   -           2            0 /_    0.0         0     4.160        2-3          0 /_    0.0         0
   -           3            0 /_    0.0         0     4.160        3-1          0 /_    0.0         0
99 ........... 1            0 /_    0.0         0     4.160        1-2          0 /_    0.0         0
   -           2            0 /_    0.0         0     4.160        2-3          0 /_    0.0         0
   -           3            0 /_    0.0         0     4.160        3-1          0 /_    0.0         0
100 .......... 1            0 /_    0.0         0     4.160        1-2          0 /_    0.0         0
   -           2            0 /_    0.0         0     4.160        2-3          0 /_    0.0         0
   -           3            0 /_    0.0         0     4.160        3-1          0 /_    0.0         0
450 .......... 1            0 /_    0.0         0     4.160        1-2          0 /_    0.0         0
   -           2            0 /_    0.0         0     4.160        2-3          0 /_    0.0         0
   -           3            0 /_    0.0         0     4.160        3-1          0 /_    0.0         0
197 .......... 1            0 /_    0.0         0     4.160        1-2          0 /_    0.0         0
   -           2            0 /_    0.0         0     4.160        2-3          0 /_    0.0         0
   -           3            0 /_    0.0         0     4.160        3-1          0 /_    0.0         0
101 .......... 1            0 /_    0.0         0     4.160        1-2          0 /_    0.0         0
   -           2            0 /_    0.0         0     4.160        2-3          0 /_    0.0         0
   -           3            0 /_    0.0         0     4.160        3-1          0 /_    0.0         0
102 .......... 3            0 /_    0.0         0     4.160
105 .......... 1            0 /_    0.0         0     4.160        1-2          0 /_    0.0         0
   -           2            0 /_    0.0         0     4.160        2-3          0 /_    0.0         0
   -           3            0 /_    0.0         0     4.160        3-1          0 /_    0.0         0
103 .......... 3            0 /_    0.0         0     4.160
104 .......... 3            0 /_    0.0         0     4.160
106 .......... 2            0 /_    0.0         0     4.160
108 .......... 1            0 /_    0.0         0     4.160        1-2          0 /_    0.0         0
   -           2            0 /_    0.0         0     4.160        2-3          0 /_    0.0         0
   -           3            0 /_    0.0         0     4.160        3-1          0 /_    0.0         0
107 .......... 2            0 /_    0.0         0     4.160
109 .......... 1            0 /_    0.0         0     4.160
300 .......... 1            0 /_    0.0         0     4.160        1-2          0 /_    0.0         0
   -           2            0 /_    0.0         0     4.160        2-3          0 /_    0.0         0
   -           3            0 /_    0.0         0     4.160        3-1          0 /_    0.0         0
110 .......... 1            0 /_    0.0         0     4.160
111 .......... 1            0 /_    0.0         0     4.160
112 .......... 1            0 /_    0.0         0     4.160
113 .......... 1            0 /_    0.0         0     4.160
114 .......... 1            0 /_    0.0         0     4.160
135 .......... 1       2.3381 /_   -1.1    0.9735     4.160        1-2     4.0729 /_   29.4   0.97907
   -           2       2.3749 /_ -120.6   0.98883     4.160        2-3     4.0933 /_  -90.7   0.98397
   -           3       2.3539 /_  119.5   0.98007     4.160        3-1     4.0741 /_  149.1   0.97935
152 .......... 1       2.3559 /_   -0.7   0.98092     4.160        1-2     4.0985 /_   29.6   0.98521
   -           2       2.3844 /_ -120.4   0.99277     4.160        2-3     4.1169 /_  -90.6   0.98965
   -           3       2.3673 /_  119.5   0.98563     4.160        3-1     4.0954 /_  149.3   0.98447
160R ......... 1            0 /_    0.0         0     4.160        1-2          0 /_    0.0         0
   -           2            0 /_    0.0         0     4.160        2-3          0 /_    0.0         0
   -           3            0 /_    0.0         0     4.160        3-1          0 /_    0.0         0
160 .......... 1       2.3438 /_   -0.9   0.97584     4.160        1-2     4.0769 /_   29.5   0.98002
   -           2       2.3717 /_ -120.6   0.98748     4.160        2-3     4.0979 /_  -90.8   0.98506
   -           3       2.3548 /_  119.2   0.98044     4.160        3-1     4.0713 /_  149.1   0.97868
61S .......... 1       2.3438 /_   -0.9   0.97584     4.160        1-2     4.0769 /_   29.5   0.98002
   -           2       2.3717 /_ -120.6   0.98748     4.160        2-3     4.0979 /_  -90.8   0.98506
   -           3       2.3548 /_  119.2   0.98044     4.160        3-1     4.0713 /_  149.1   0.97868
300_OPEN ..... 1       2.3204 /_   -1.3   0.96612     4.160        1-2     4.0449 /_   29.2   0.97234
   -           2       2.3602 /_ -120.9   0.98268     4.160        2-3     4.0707 /_  -90.9   0.97853
   -           3       2.3422 /_  119.2   0.97519     4.160        3-1     4.0482 /_  148.8   0.97312
94_OPEN ...... 1       2.3481 /_   -0.8   0.97764     4.160
610 .......... 1      0.27088 /_   -0.7   0.97744     0.480        1-2    0.47041 /_   29.5   0.98002
   -           2      0.27265 /_ -120.6   0.98383     0.480        2-3    0.47283 /_  -90.8   0.98506
   -           3      0.27228 /_  119.0    0.9825     0.480        3-1    0.46977 /_  149.1   0.97868
116355B1500596 1            0 /_    0.0         0     4.160        1-2          0 /_    0.0         0
   -           2            0 /_    0.0         0     4.160        2-3          0 /_    0.0         0
   -           3            0 /_    0.0         0     4.160        3-1          0 /_    0.0         0
